
---------- Begin Simulation Statistics ----------
final_tick                                59192790000                       # Number of ticks from beginning of simulation (restored from checkpoints and never reset)
host_inst_rate                                 195883                       # Simulator instruction rate (inst/s)
host_mem_usage                                 689132                       # Number of bytes of host memory used
host_op_rate                                   198048                       # Simulator op (including micro ops) rate (op/s)
host_seconds                                   510.51                       # Real time elapsed on the host
host_tick_rate                              115948800                       # Simulator tick rate (ticks/s)
sim_freq                                 1000000000000                       # Frequency of simulated ticks
sim_insts                                   100000001                       # Number of instructions simulated
sim_ops                                     101104882                       # Number of ops (including micro ops) simulated
sim_seconds                                  0.059193                       # Number of seconds simulated
sim_ticks                                 59192790000                       # Number of ticks simulated
system.cpu.branchPred.BTBCorrect                    0                       # Number of correct BTB predictions (this stat may not work properly.
system.cpu.branchPred.BTBHitPct             81.029155                       # BTB Hit Percentage
system.cpu.branchPred.BTBHits                 4084623                       # Number of BTB hits
system.cpu.branchPred.BTBLookups              5040930                       # Number of BTB lookups
system.cpu.branchPred.RASInCorrect                 20                       # Number of incorrect RAS predictions.
system.cpu.branchPred.condIncorrect            352278                       # Number of conditional branches incorrect
system.cpu.branchPred.condPredicted           5099215                       # Number of conditional branches predicted
system.cpu.branchPred.indirectHits             103111                       # Number of indirect target hits.
system.cpu.branchPred.indirectLookups          680930                       # Number of indirect predictor lookups.
system.cpu.branchPred.indirectMisses           577819                       # Number of indirect misses.
system.cpu.branchPred.lookups                 6510733                       # Number of BP lookups
system.cpu.branchPred.usedRAS                  312103                       # Number of times the RAS was used to get a target.
system.cpu.branchPredindirectMispredicted        38184                       # Number of mispredicted indirect branches.
system.cpu.committedInsts                   100000001                       # Number of instructions committed
system.cpu.committedOps                     101104882                       # Number of ops (including micro ops) committed
system.cpu.cpi                               1.183856                       # CPI: cycles per instruction
system.cpu.discardedOps                        979120                       # Number of ops (including micro ops) which were discarded before commit
system.cpu.dtb.accesses                             0                       # DTB accesses
system.cpu.dtb.align_faults                         0                       # Number of TLB faults due to alignment restrictions
system.cpu.dtb.domain_faults                        0                       # Number of TLB faults due to domain restrictions
system.cpu.dtb.flush_entries                        0                       # Number of entries that have been flushed from TLB
system.cpu.dtb.flush_tlb                            0                       # Number of times complete TLB was flushed
system.cpu.dtb.flush_tlb_asid                       0                       # Number of times TLB was flushed by ASID
system.cpu.dtb.flush_tlb_mva                        0                       # Number of times TLB was flushed by MVA
system.cpu.dtb.flush_tlb_mva_asid                   0                       # Number of times TLB was flushed by MVA & ASID
system.cpu.dtb.hits                                 0                       # DTB hits
system.cpu.dtb.inst_accesses                        0                       # ITB inst accesses
system.cpu.dtb.inst_hits                            0                       # ITB inst hits
system.cpu.dtb.inst_misses                          0                       # ITB inst misses
system.cpu.dtb.misses                               0                       # DTB misses
system.cpu.dtb.perms_faults                         0                       # Number of TLB faults due to permissions restrictions
system.cpu.dtb.prefetch_faults                      0                       # Number of TLB faults due to prefetch
system.cpu.dtb.read_accesses                        0                       # DTB read accesses
system.cpu.dtb.read_hits                            0                       # DTB read hits
system.cpu.dtb.read_misses                          0                       # DTB read misses
system.cpu.dtb.stage2_mmu.stage2_tlb.accesses            0                       # DTB accesses
system.cpu.dtb.stage2_mmu.stage2_tlb.align_faults            0                       # Number of TLB faults due to alignment restrictions
system.cpu.dtb.stage2_mmu.stage2_tlb.domain_faults            0                       # Number of TLB faults due to domain restrictions
system.cpu.dtb.stage2_mmu.stage2_tlb.flush_entries            0                       # Number of entries that have been flushed from TLB
system.cpu.dtb.stage2_mmu.stage2_tlb.flush_tlb            0                       # Number of times complete TLB was flushed
system.cpu.dtb.stage2_mmu.stage2_tlb.flush_tlb_asid            0                       # Number of times TLB was flushed by ASID
system.cpu.dtb.stage2_mmu.stage2_tlb.flush_tlb_mva            0                       # Number of times TLB was flushed by MVA
system.cpu.dtb.stage2_mmu.stage2_tlb.flush_tlb_mva_asid            0                       # Number of times TLB was flushed by MVA & ASID
system.cpu.dtb.stage2_mmu.stage2_tlb.hits            0                       # DTB hits
system.cpu.dtb.stage2_mmu.stage2_tlb.inst_accesses            0                       # ITB inst accesses
system.cpu.dtb.stage2_mmu.stage2_tlb.inst_hits            0                       # ITB inst hits
system.cpu.dtb.stage2_mmu.stage2_tlb.inst_misses            0                       # ITB inst misses
system.cpu.dtb.stage2_mmu.stage2_tlb.misses            0                       # DTB misses
system.cpu.dtb.stage2_mmu.stage2_tlb.perms_faults            0                       # Number of TLB faults due to permissions restrictions
system.cpu.dtb.stage2_mmu.stage2_tlb.prefetch_faults            0                       # Number of TLB faults due to prefetch
system.cpu.dtb.stage2_mmu.stage2_tlb.read_accesses            0                       # DTB read accesses
system.cpu.dtb.stage2_mmu.stage2_tlb.read_hits            0                       # DTB read hits
system.cpu.dtb.stage2_mmu.stage2_tlb.read_misses            0                       # DTB read misses
system.cpu.dtb.stage2_mmu.stage2_tlb.walker.walkRequestOrigin_Requested::Data            0                       # Table walker requests started/completed, data/inst
system.cpu.dtb.stage2_mmu.stage2_tlb.walker.walkRequestOrigin_Requested::Inst            0                       # Table walker requests started/completed, data/inst
system.cpu.dtb.stage2_mmu.stage2_tlb.walker.walkRequestOrigin_Requested::total            0                       # Table walker requests started/completed, data/inst
system.cpu.dtb.stage2_mmu.stage2_tlb.walker.walkRequestOrigin_Completed::Data            0                       # Table walker requests started/completed, data/inst
system.cpu.dtb.stage2_mmu.stage2_tlb.walker.walkRequestOrigin_Completed::Inst            0                       # Table walker requests started/completed, data/inst
system.cpu.dtb.stage2_mmu.stage2_tlb.walker.walkRequestOrigin_Completed::total            0                       # Table walker requests started/completed, data/inst
system.cpu.dtb.stage2_mmu.stage2_tlb.walker.walkRequestOrigin::total            0                       # Table walker requests started/completed, data/inst
system.cpu.dtb.stage2_mmu.stage2_tlb.walker.walks            0                       # Table walker walks requested
system.cpu.dtb.stage2_mmu.stage2_tlb.write_accesses            0                       # DTB write accesses
system.cpu.dtb.stage2_mmu.stage2_tlb.write_hits            0                       # DTB write hits
system.cpu.dtb.stage2_mmu.stage2_tlb.write_misses            0                       # DTB write misses
system.cpu.dtb.walker.walkRequestOrigin_Requested::Data            0                       # Table walker requests started/completed, data/inst
system.cpu.dtb.walker.walkRequestOrigin_Requested::Inst            0                       # Table walker requests started/completed, data/inst
system.cpu.dtb.walker.walkRequestOrigin_Requested::total            0                       # Table walker requests started/completed, data/inst
system.cpu.dtb.walker.walkRequestOrigin_Completed::Data            0                       # Table walker requests started/completed, data/inst
system.cpu.dtb.walker.walkRequestOrigin_Completed::Inst            0                       # Table walker requests started/completed, data/inst
system.cpu.dtb.walker.walkRequestOrigin_Completed::total            0                       # Table walker requests started/completed, data/inst
system.cpu.dtb.walker.walkRequestOrigin::total            0                       # Table walker requests started/completed, data/inst
system.cpu.dtb.walker.walks                         0                       # Table walker walks requested
system.cpu.dtb.write_accesses                       0                       # DTB write accesses
system.cpu.dtb.write_hits                           0                       # DTB write hits
system.cpu.dtb.write_misses                         0                       # DTB write misses
system.cpu.fetch2.amo_instructions                  0                       # Number of memory atomic instructions successfully decoded
system.cpu.fetch2.fp_instructions                   0                       # Number of floating point instructions successfully decoded
system.cpu.fetch2.int_instructions           48922094                       # Number of integer instructions successfully decoded
system.cpu.fetch2.load_instructions          40599452                       # Number of memory load instructions successfully decoded
system.cpu.fetch2.store_instructions          6289781                       # Number of memory store instructions successfully decoded
system.cpu.fetch2.vec_instructions                  0                       # Number of SIMD instructions successfully decoded
system.cpu.idleCycles                         2615828                       # Total number of cycles that the object has spent stopped
system.cpu.ipc                               0.844697                       # IPC: instructions per cycle
system.cpu.itb.accesses                             0                       # DTB accesses
system.cpu.itb.align_faults                         0                       # Number of TLB faults due to alignment restrictions
system.cpu.itb.domain_faults                        0                       # Number of TLB faults due to domain restrictions
system.cpu.itb.flush_entries                        0                       # Number of entries that have been flushed from TLB
system.cpu.itb.flush_tlb                            0                       # Number of times complete TLB was flushed
system.cpu.itb.flush_tlb_asid                       0                       # Number of times TLB was flushed by ASID
system.cpu.itb.flush_tlb_mva                        0                       # Number of times TLB was flushed by MVA
system.cpu.itb.flush_tlb_mva_asid                   0                       # Number of times TLB was flushed by MVA & ASID
system.cpu.itb.hits                                 0                       # DTB hits
system.cpu.itb.inst_accesses                        0                       # ITB inst accesses
system.cpu.itb.inst_hits                            0                       # ITB inst hits
system.cpu.itb.inst_misses                          0                       # ITB inst misses
system.cpu.itb.misses                               0                       # DTB misses
system.cpu.itb.perms_faults                         0                       # Number of TLB faults due to permissions restrictions
system.cpu.itb.prefetch_faults                      0                       # Number of TLB faults due to prefetch
system.cpu.itb.read_accesses                        0                       # DTB read accesses
system.cpu.itb.read_hits                            0                       # DTB read hits
system.cpu.itb.read_misses                          0                       # DTB read misses
system.cpu.itb.stage2_mmu.stage2_tlb.accesses            0                       # DTB accesses
system.cpu.itb.stage2_mmu.stage2_tlb.align_faults            0                       # Number of TLB faults due to alignment restrictions
system.cpu.itb.stage2_mmu.stage2_tlb.domain_faults            0                       # Number of TLB faults due to domain restrictions
system.cpu.itb.stage2_mmu.stage2_tlb.flush_entries            0                       # Number of entries that have been flushed from TLB
system.cpu.itb.stage2_mmu.stage2_tlb.flush_tlb            0                       # Number of times complete TLB was flushed
system.cpu.itb.stage2_mmu.stage2_tlb.flush_tlb_asid            0                       # Number of times TLB was flushed by ASID
system.cpu.itb.stage2_mmu.stage2_tlb.flush_tlb_mva            0                       # Number of times TLB was flushed by MVA
system.cpu.itb.stage2_mmu.stage2_tlb.flush_tlb_mva_asid            0                       # Number of times TLB was flushed by MVA & ASID
system.cpu.itb.stage2_mmu.stage2_tlb.hits            0                       # DTB hits
system.cpu.itb.stage2_mmu.stage2_tlb.inst_accesses            0                       # ITB inst accesses
system.cpu.itb.stage2_mmu.stage2_tlb.inst_hits            0                       # ITB inst hits
system.cpu.itb.stage2_mmu.stage2_tlb.inst_misses            0                       # ITB inst misses
system.cpu.itb.stage2_mmu.stage2_tlb.misses            0                       # DTB misses
system.cpu.itb.stage2_mmu.stage2_tlb.perms_faults            0                       # Number of TLB faults due to permissions restrictions
system.cpu.itb.stage2_mmu.stage2_tlb.prefetch_faults            0                       # Number of TLB faults due to prefetch
system.cpu.itb.stage2_mmu.stage2_tlb.read_accesses            0                       # DTB read accesses
system.cpu.itb.stage2_mmu.stage2_tlb.read_hits            0                       # DTB read hits
system.cpu.itb.stage2_mmu.stage2_tlb.read_misses            0                       # DTB read misses
system.cpu.itb.stage2_mmu.stage2_tlb.walker.walkRequestOrigin_Requested::Data            0                       # Table walker requests started/completed, data/inst
system.cpu.itb.stage2_mmu.stage2_tlb.walker.walkRequestOrigin_Requested::Inst            0                       # Table walker requests started/completed, data/inst
system.cpu.itb.stage2_mmu.stage2_tlb.walker.walkRequestOrigin_Requested::total            0                       # Table walker requests started/completed, data/inst
system.cpu.itb.stage2_mmu.stage2_tlb.walker.walkRequestOrigin_Completed::Data            0                       # Table walker requests started/completed, data/inst
system.cpu.itb.stage2_mmu.stage2_tlb.walker.walkRequestOrigin_Completed::Inst            0                       # Table walker requests started/completed, data/inst
system.cpu.itb.stage2_mmu.stage2_tlb.walker.walkRequestOrigin_Completed::total            0                       # Table walker requests started/completed, data/inst
system.cpu.itb.stage2_mmu.stage2_tlb.walker.walkRequestOrigin::total            0                       # Table walker requests started/completed, data/inst
system.cpu.itb.stage2_mmu.stage2_tlb.walker.walks            0                       # Table walker walks requested
system.cpu.itb.stage2_mmu.stage2_tlb.write_accesses            0                       # DTB write accesses
system.cpu.itb.stage2_mmu.stage2_tlb.write_hits            0                       # DTB write hits
system.cpu.itb.stage2_mmu.stage2_tlb.write_misses            0                       # DTB write misses
system.cpu.itb.walker.walkRequestOrigin_Requested::Data            0                       # Table walker requests started/completed, data/inst
system.cpu.itb.walker.walkRequestOrigin_Requested::Inst            0                       # Table walker requests started/completed, data/inst
system.cpu.itb.walker.walkRequestOrigin_Requested::total            0                       # Table walker requests started/completed, data/inst
system.cpu.itb.walker.walkRequestOrigin_Completed::Data            0                       # Table walker requests started/completed, data/inst
system.cpu.itb.walker.walkRequestOrigin_Completed::Inst            0                       # Table walker requests started/completed, data/inst
system.cpu.itb.walker.walkRequestOrigin_Completed::total            0                       # Table walker requests started/completed, data/inst
system.cpu.itb.walker.walkRequestOrigin::total            0                       # Table walker requests started/completed, data/inst
system.cpu.itb.walker.walks                         0                       # Table walker walks requested
system.cpu.itb.write_accesses                       0                       # DTB write accesses
system.cpu.itb.write_hits                           0                       # DTB write hits
system.cpu.itb.write_misses                         0                       # DTB write misses
system.cpu.numCycles                        118385580                       # number of cpu cycles simulated
system.cpu.numFetchSuspends                         0                       # Number of times Execute suspended instruction fetching
system.cpu.numWorkItemsCompleted                    0                       # number of work items this cpu completed
system.cpu.numWorkItemsStarted                      0                       # number of work items this cpu started
system.cpu.op_class_0::No_OpClass                   0      0.00%      0.00% # Class of committed instruction
system.cpu.op_class_0::IntAlu                55083927     54.48%     54.48% # Class of committed instruction
system.cpu.op_class_0::IntMult                 173247      0.17%     54.65% # Class of committed instruction
system.cpu.op_class_0::IntDiv                       0      0.00%     54.65% # Class of committed instruction
system.cpu.op_class_0::FloatAdd                     0      0.00%     54.65% # Class of committed instruction
system.cpu.op_class_0::FloatCmp                     0      0.00%     54.65% # Class of committed instruction
system.cpu.op_class_0::FloatCvt                     0      0.00%     54.65% # Class of committed instruction
system.cpu.op_class_0::FloatMult                    0      0.00%     54.65% # Class of committed instruction
system.cpu.op_class_0::FloatMultAcc                 0      0.00%     54.65% # Class of committed instruction
system.cpu.op_class_0::FloatDiv                     0      0.00%     54.65% # Class of committed instruction
system.cpu.op_class_0::FloatMisc                    0      0.00%     54.65% # Class of committed instruction
system.cpu.op_class_0::FloatSqrt                    0      0.00%     54.65% # Class of committed instruction
system.cpu.op_class_0::SimdAdd                    380      0.00%     54.65% # Class of committed instruction
system.cpu.op_class_0::SimdAddAcc                   0      0.00%     54.65% # Class of committed instruction
system.cpu.op_class_0::SimdAlu                    470      0.00%     54.65% # Class of committed instruction
system.cpu.op_class_0::SimdCmp                    382      0.00%     54.65% # Class of committed instruction
system.cpu.op_class_0::SimdCvt                      0      0.00%     54.65% # Class of committed instruction
system.cpu.op_class_0::SimdMisc                    53      0.00%     54.65% # Class of committed instruction
system.cpu.op_class_0::SimdMult                     0      0.00%     54.65% # Class of committed instruction
system.cpu.op_class_0::SimdMultAcc                  0      0.00%     54.65% # Class of committed instruction
system.cpu.op_class_0::SimdShift                    0      0.00%     54.65% # Class of committed instruction
system.cpu.op_class_0::SimdShiftAcc                 0      0.00%     54.65% # Class of committed instruction
system.cpu.op_class_0::SimdDiv                      0      0.00%     54.65% # Class of committed instruction
system.cpu.op_class_0::SimdSqrt                     0      0.00%     54.65% # Class of committed instruction
system.cpu.op_class_0::SimdFloatAdd            269755      0.27%     54.92% # Class of committed instruction
system.cpu.op_class_0::SimdFloatAlu                 0      0.00%     54.92% # Class of committed instruction
system.cpu.op_class_0::SimdFloatCmp            261744      0.26%     55.18% # Class of committed instruction
system.cpu.op_class_0::SimdFloatCvt            161944      0.16%     55.34% # Class of committed instruction
system.cpu.op_class_0::SimdFloatDiv             54439      0.05%     55.39% # Class of committed instruction
system.cpu.op_class_0::SimdFloatMisc           486404      0.48%     55.88% # Class of committed instruction
system.cpu.op_class_0::SimdFloatMult            33632      0.03%     55.91% # Class of committed instruction
system.cpu.op_class_0::SimdFloatMultAcc         11115      0.01%     55.92% # Class of committed instruction
system.cpu.op_class_0::SimdFloatSqrt                0      0.00%     55.92% # Class of committed instruction
system.cpu.op_class_0::SimdReduceAdd                0      0.00%     55.92% # Class of committed instruction
system.cpu.op_class_0::SimdReduceAlu                0      0.00%     55.92% # Class of committed instruction
system.cpu.op_class_0::SimdReduceCmp                0      0.00%     55.92% # Class of committed instruction
system.cpu.op_class_0::SimdFloatReduceAdd            0      0.00%     55.92% # Class of committed instruction
system.cpu.op_class_0::SimdFloatReduceCmp            0      0.00%     55.92% # Class of committed instruction
system.cpu.op_class_0::SimdAes                      0      0.00%     55.92% # Class of committed instruction
system.cpu.op_class_0::SimdAesMix                   0      0.00%     55.92% # Class of committed instruction
system.cpu.op_class_0::SimdSha1Hash                 0      0.00%     55.92% # Class of committed instruction
system.cpu.op_class_0::SimdSha1Hash2                0      0.00%     55.92% # Class of committed instruction
system.cpu.op_class_0::SimdSha256Hash               0      0.00%     55.92% # Class of committed instruction
system.cpu.op_class_0::SimdSha256Hash2              0      0.00%     55.92% # Class of committed instruction
system.cpu.op_class_0::SimdShaSigma2                0      0.00%     55.92% # Class of committed instruction
system.cpu.op_class_0::SimdShaSigma3                0      0.00%     55.92% # Class of committed instruction
system.cpu.op_class_0::SimdPredAlu                  0      0.00%     55.92% # Class of committed instruction
system.cpu.op_class_0::MemRead               38164635     37.75%     93.67% # Class of committed instruction
system.cpu.op_class_0::MemWrite               6402755      6.33%    100.00% # Class of committed instruction
system.cpu.op_class_0::FloatMemRead                 0      0.00%    100.00% # Class of committed instruction
system.cpu.op_class_0::FloatMemWrite                0      0.00%    100.00% # Class of committed instruction
system.cpu.op_class_0::IprAccess                    0      0.00%    100.00% # Class of committed instruction
system.cpu.op_class_0::InstPrefetch                 0      0.00%    100.00% # Class of committed instruction
system.cpu.op_class_0::total                101104882                       # Class of committed instruction
system.cpu.tickCycles                       115769752                       # Number of cycles that the object actually ticked
system.cpu.workload.numSyscalls                    33                       # Number of system calls
system.membus.snoop_filter.hit_multi_requests            0                       # Number of requests hitting in the snoop filter with multiple (>1) holders of the requested data.
system.membus.snoop_filter.hit_multi_snoops            0                       # Number of snoops hitting in the snoop filter with multiple (>1) holders of the requested data.
system.membus.snoop_filter.hit_single_requests            0                       # Number of requests hitting in the snoop filter with a single holder of the requested data.
system.membus.snoop_filter.hit_single_snoops            0                       # Number of snoops hitting in the snoop filter with a single holder of the requested data.
system.membus.snoop_filter.tot_requests          3245                       # Total number of requests made to the snoop filter.
system.membus.snoop_filter.tot_snoops               0                       # Total number of snoops made to the snoop filter.
system.tol2bus.snoop_filter.hit_multi_requests         1133                       # Number of requests hitting in the snoop filter with multiple (>1) holders of the requested data.
system.tol2bus.snoop_filter.hit_multi_snoops            0                       # Number of snoops hitting in the snoop filter with multiple (>1) holders of the requested data.
system.tol2bus.snoop_filter.hit_single_requests        43843                       # Number of requests hitting in the snoop filter with a single holder of the requested data.
system.tol2bus.snoop_filter.hit_single_snoops            0                       # Number of snoops hitting in the snoop filter with a single holder of the requested data.
system.tol2bus.snoop_filter.tot_requests        88428                       # Total number of requests made to the snoop filter.
system.tol2bus.snoop_filter.tot_snoops              0                       # Total number of snoops made to the snoop filter.
system.membus.pwrStateResidencyTicks::UNDEFINED  59192790000                       # Cumulative time (in ticks) in various power states
system.membus.trans_dist::ReadResp               1089                       # Transaction distribution
system.membus.trans_dist::ReadExReq              2156                       # Transaction distribution
system.membus.trans_dist::ReadExResp             2156                       # Transaction distribution
system.membus.trans_dist::ReadSharedReq          1089                       # Transaction distribution
system.membus.pkt_count_system.l2.mem_side::system.mem_ctrls.port         6490                       # Packet count per connected master and slave (bytes)
system.membus.pkt_count::total                   6490                       # Packet count per connected master and slave (bytes)
system.membus.pkt_size_system.l2.mem_side::system.mem_ctrls.port       415360                       # Cumulative packet size per connected master and slave (bytes)
system.membus.pkt_size::total                  415360                       # Cumulative packet size per connected master and slave (bytes)
system.membus.snoops                                0                       # Total snoops (count)
system.membus.snoopTraffic                          0                       # Total snoop traffic (bytes)
system.membus.snoop_fanout::samples              3245                       # Request fanout histogram
system.membus.snoop_fanout::mean                    0                       # Request fanout histogram
system.membus.snoop_fanout::stdev                   0                       # Request fanout histogram
system.membus.snoop_fanout::underflows              0      0.00%      0.00% # Request fanout histogram
system.membus.snoop_fanout::0                    3245    100.00%    100.00% # Request fanout histogram
system.membus.snoop_fanout::1                       0      0.00%    100.00% # Request fanout histogram
system.membus.snoop_fanout::overflows               0      0.00%    100.00% # Request fanout histogram
system.membus.snoop_fanout::min_value               0                       # Request fanout histogram
system.membus.snoop_fanout::max_value               0                       # Request fanout histogram
system.membus.snoop_fanout::total                3245                       # Request fanout histogram
system.membus.respLayer1.occupancy           30320000                       # Layer occupancy (ticks)
system.membus.respLayer1.utilization              0.1                       # Layer utilization (%)
system.membus.reqLayer0.occupancy             4056000                       # Layer occupancy (ticks)
system.membus.reqLayer0.utilization               0.0                       # Layer utilization (%)
system.tol2bus.pwrStateResidencyTicks::UNDEFINED  59192790000                       # Cumulative time (in ticks) in various power states
system.tol2bus.trans_dist::ReadResp             14925                       # Transaction distribution
system.tol2bus.trans_dist::WritebackDirty        36948                       # Transaction distribution
system.tol2bus.trans_dist::WritebackClean         5141                       # Transaction distribution
system.tol2bus.trans_dist::CleanEvict            1741                       # Transaction distribution
system.tol2bus.trans_dist::ReadExReq            29673                       # Transaction distribution
system.tol2bus.trans_dist::ReadExResp           29673                       # Transaction distribution
system.tol2bus.trans_dist::ReadCleanReq          5397                       # Transaction distribution
system.tol2bus.trans_dist::ReadSharedReq         9528                       # Transaction distribution
system.tol2bus.pkt_count_system.cpu.icache.mem_side::system.l2.cpu_side        15935                       # Packet count per connected master and slave (bytes)
system.tol2bus.pkt_count_system.cpu.dcache.mem_side::system.l2.cpu_side       117091                       # Packet count per connected master and slave (bytes)
system.tol2bus.pkt_count::total                133026                       # Packet count per connected master and slave (bytes)
system.tol2bus.pkt_size_system.cpu.icache.mem_side::system.l2.cpu_side      1348864                       # Cumulative packet size per connected master and slave (bytes)
system.tol2bus.pkt_size_system.cpu.dcache.mem_side::system.l2.cpu_side      9747072                       # Cumulative packet size per connected master and slave (bytes)
system.tol2bus.pkt_size::total               11095936                       # Cumulative packet size per connected master and slave (bytes)
system.tol2bus.snoops                               0                       # Total snoops (count)
system.tol2bus.snoopTraffic                         0                       # Total snoop traffic (bytes)
system.tol2bus.snoop_fanout::samples            44598                       # Request fanout histogram
system.tol2bus.snoop_fanout::mean            0.025696                       # Request fanout histogram
system.tol2bus.snoop_fanout::stdev           0.158229                       # Request fanout histogram
system.tol2bus.snoop_fanout::underflows             0      0.00%      0.00% # Request fanout histogram
system.tol2bus.snoop_fanout::0                  43452     97.43%     97.43% # Request fanout histogram
system.tol2bus.snoop_fanout::1                   1146      2.57%    100.00% # Request fanout histogram
system.tol2bus.snoop_fanout::2                      0      0.00%    100.00% # Request fanout histogram
system.tol2bus.snoop_fanout::overflows              0      0.00%    100.00% # Request fanout histogram
system.tol2bus.snoop_fanout::min_value              0                       # Request fanout histogram
system.tol2bus.snoop_fanout::max_value              1                       # Request fanout histogram
system.tol2bus.snoop_fanout::total              44598                       # Request fanout histogram
system.tol2bus.reqLayer0.occupancy          128392000                       # Layer occupancy (ticks)
system.tol2bus.reqLayer0.utilization              0.2                       # Layer utilization (%)
system.tol2bus.respLayer1.occupancy          98006991                       # Layer occupancy (ticks)
system.tol2bus.respLayer1.utilization             0.2                       # Layer utilization (%)
system.tol2bus.respLayer0.occupancy          13492999                       # Layer occupancy (ticks)
system.tol2bus.respLayer0.utilization             0.0                       # Layer utilization (%)
system.voltage_domain.voltage                       1                       # Voltage in Volts
system.clk_domain.clock                          1000                       # Clock period in ticks
system.l2.pwrStateResidencyTicks::UNDEFINED  59192790000                       # Cumulative time (in ticks) in various power states
system.l2.demand_hits::.cpu.inst                 4618                       # number of demand (read+write) hits
system.l2.demand_hits::.cpu.data                36727                       # number of demand (read+write) hits
system.l2.demand_hits::total                    41345                       # number of demand (read+write) hits
system.l2.overall_hits::.cpu.inst                4618                       # number of overall hits
system.l2.overall_hits::.cpu.data               36727                       # number of overall hits
system.l2.overall_hits::total                   41345                       # number of overall hits
system.l2.demand_misses::.cpu.inst                779                       # number of demand (read+write) misses
system.l2.demand_misses::.cpu.data               2474                       # number of demand (read+write) misses
system.l2.demand_misses::total                   3253                       # number of demand (read+write) misses
system.l2.overall_misses::.cpu.inst               779                       # number of overall misses
system.l2.overall_misses::.cpu.data              2474                       # number of overall misses
system.l2.overall_misses::total                  3253                       # number of overall misses
system.l2.demand_miss_latency::.cpu.inst     64539000                       # number of demand (read+write) miss cycles
system.l2.demand_miss_latency::.cpu.data    207676000                       # number of demand (read+write) miss cycles
system.l2.demand_miss_latency::total        272215000                       # number of demand (read+write) miss cycles
system.l2.overall_miss_latency::.cpu.inst     64539000                       # number of overall miss cycles
system.l2.overall_miss_latency::.cpu.data    207676000                       # number of overall miss cycles
system.l2.overall_miss_latency::total       272215000                       # number of overall miss cycles
system.l2.demand_accesses::.cpu.inst             5397                       # number of demand (read+write) accesses
system.l2.demand_accesses::.cpu.data            39201                       # number of demand (read+write) accesses
system.l2.demand_accesses::total                44598                       # number of demand (read+write) accesses
system.l2.overall_accesses::.cpu.inst            5397                       # number of overall (read+write) accesses
system.l2.overall_accesses::.cpu.data           39201                       # number of overall (read+write) accesses
system.l2.overall_accesses::total               44598                       # number of overall (read+write) accesses
system.l2.demand_miss_rate::.cpu.inst        0.144339                       # miss rate for demand accesses
system.l2.demand_miss_rate::.cpu.data        0.063111                       # miss rate for demand accesses
system.l2.demand_miss_rate::total            0.072940                       # miss rate for demand accesses
system.l2.overall_miss_rate::.cpu.inst       0.144339                       # miss rate for overall accesses
system.l2.overall_miss_rate::.cpu.data       0.063111                       # miss rate for overall accesses
system.l2.overall_miss_rate::total           0.072940                       # miss rate for overall accesses
system.l2.demand_avg_miss_latency::.cpu.inst 82848.523748                       # average overall miss latency
system.l2.demand_avg_miss_latency::.cpu.data 83943.411479                       # average overall miss latency
system.l2.demand_avg_miss_latency::total 83681.217338                       # average overall miss latency
system.l2.overall_avg_miss_latency::.cpu.inst 82848.523748                       # average overall miss latency
system.l2.overall_avg_miss_latency::.cpu.data 83943.411479                       # average overall miss latency
system.l2.overall_avg_miss_latency::total 83681.217338                       # average overall miss latency
system.l2.blocked_cycles::no_mshrs                  0                       # number of cycles access was blocked
system.l2.blocked_cycles::no_targets                0                       # number of cycles access was blocked
system.l2.blocked::no_mshrs                         0                       # number of cycles access was blocked
system.l2.blocked::no_targets                       0                       # number of cycles access was blocked
system.l2.avg_blocked_cycles::no_mshrs            nan                       # average number of cycles each access was blocked
system.l2.avg_blocked_cycles::no_targets          nan                       # average number of cycles each access was blocked
system.l2.demand_mshr_hits::.cpu.inst               1                       # number of demand (read+write) MSHR hits
system.l2.demand_mshr_hits::.cpu.data               7                       # number of demand (read+write) MSHR hits
system.l2.demand_mshr_hits::total                   8                       # number of demand (read+write) MSHR hits
system.l2.overall_mshr_hits::.cpu.inst              1                       # number of overall MSHR hits
system.l2.overall_mshr_hits::.cpu.data              7                       # number of overall MSHR hits
system.l2.overall_mshr_hits::total                  8                       # number of overall MSHR hits
system.l2.demand_mshr_misses::.cpu.inst           778                       # number of demand (read+write) MSHR misses
system.l2.demand_mshr_misses::.cpu.data          2467                       # number of demand (read+write) MSHR misses
system.l2.demand_mshr_misses::total              3245                       # number of demand (read+write) MSHR misses
system.l2.overall_mshr_misses::.cpu.inst          778                       # number of overall MSHR misses
system.l2.overall_mshr_misses::.cpu.data         2467                       # number of overall MSHR misses
system.l2.overall_mshr_misses::total             3245                       # number of overall MSHR misses
system.l2.demand_mshr_miss_latency::.cpu.inst     56723000                       # number of demand (read+write) MSHR miss cycles
system.l2.demand_mshr_miss_latency::.cpu.data    182510000                       # number of demand (read+write) MSHR miss cycles
system.l2.demand_mshr_miss_latency::total    239233000                       # number of demand (read+write) MSHR miss cycles
system.l2.overall_mshr_miss_latency::.cpu.inst     56723000                       # number of overall MSHR miss cycles
system.l2.overall_mshr_miss_latency::.cpu.data    182510000                       # number of overall MSHR miss cycles
system.l2.overall_mshr_miss_latency::total    239233000                       # number of overall MSHR miss cycles
system.l2.demand_mshr_miss_rate::.cpu.inst     0.144154                       # mshr miss rate for demand accesses
system.l2.demand_mshr_miss_rate::.cpu.data     0.062932                       # mshr miss rate for demand accesses
system.l2.demand_mshr_miss_rate::total       0.072761                       # mshr miss rate for demand accesses
system.l2.overall_mshr_miss_rate::.cpu.inst     0.144154                       # mshr miss rate for overall accesses
system.l2.overall_mshr_miss_rate::.cpu.data     0.062932                       # mshr miss rate for overall accesses
system.l2.overall_mshr_miss_rate::total      0.072761                       # mshr miss rate for overall accesses
system.l2.demand_avg_mshr_miss_latency::.cpu.inst 72908.740360                       # average overall mshr miss latency
system.l2.demand_avg_mshr_miss_latency::.cpu.data 73980.543170                       # average overall mshr miss latency
system.l2.demand_avg_mshr_miss_latency::total 73723.574730                       # average overall mshr miss latency
system.l2.overall_avg_mshr_miss_latency::.cpu.inst 72908.740360                       # average overall mshr miss latency
system.l2.overall_avg_mshr_miss_latency::.cpu.data 73980.543170                       # average overall mshr miss latency
system.l2.overall_avg_mshr_miss_latency::total 73723.574730                       # average overall mshr miss latency
system.l2.replacements                              0                       # number of replacements
system.l2.WritebackDirty_hits::.writebacks        36948                       # number of WritebackDirty hits
system.l2.WritebackDirty_hits::total            36948                       # number of WritebackDirty hits
system.l2.WritebackDirty_accesses::.writebacks        36948                       # number of WritebackDirty accesses(hits+misses)
system.l2.WritebackDirty_accesses::total        36948                       # number of WritebackDirty accesses(hits+misses)
system.l2.WritebackClean_hits::.writebacks         4820                       # number of WritebackClean hits
system.l2.WritebackClean_hits::total             4820                       # number of WritebackClean hits
system.l2.WritebackClean_accesses::.writebacks         4820                       # number of WritebackClean accesses(hits+misses)
system.l2.WritebackClean_accesses::total         4820                       # number of WritebackClean accesses(hits+misses)
system.l2.ReadExReq_hits::.cpu.data             27517                       # number of ReadExReq hits
system.l2.ReadExReq_hits::total                 27517                       # number of ReadExReq hits
system.l2.ReadExReq_misses::.cpu.data            2156                       # number of ReadExReq misses
system.l2.ReadExReq_misses::total                2156                       # number of ReadExReq misses
system.l2.ReadExReq_miss_latency::.cpu.data    180438000                       # number of ReadExReq miss cycles
system.l2.ReadExReq_miss_latency::total     180438000                       # number of ReadExReq miss cycles
system.l2.ReadExReq_accesses::.cpu.data         29673                       # number of ReadExReq accesses(hits+misses)
system.l2.ReadExReq_accesses::total             29673                       # number of ReadExReq accesses(hits+misses)
system.l2.ReadExReq_miss_rate::.cpu.data     0.072659                       # miss rate for ReadExReq accesses
system.l2.ReadExReq_miss_rate::total         0.072659                       # miss rate for ReadExReq accesses
system.l2.ReadExReq_avg_miss_latency::.cpu.data 83691.094620                       # average ReadExReq miss latency
system.l2.ReadExReq_avg_miss_latency::total 83691.094620                       # average ReadExReq miss latency
system.l2.ReadExReq_mshr_misses::.cpu.data         2156                       # number of ReadExReq MSHR misses
system.l2.ReadExReq_mshr_misses::total           2156                       # number of ReadExReq MSHR misses
system.l2.ReadExReq_mshr_miss_latency::.cpu.data    158878000                       # number of ReadExReq MSHR miss cycles
system.l2.ReadExReq_mshr_miss_latency::total    158878000                       # number of ReadExReq MSHR miss cycles
system.l2.ReadExReq_mshr_miss_rate::.cpu.data     0.072659                       # mshr miss rate for ReadExReq accesses
system.l2.ReadExReq_mshr_miss_rate::total     0.072659                       # mshr miss rate for ReadExReq accesses
system.l2.ReadExReq_avg_mshr_miss_latency::.cpu.data 73691.094620                       # average ReadExReq mshr miss latency
system.l2.ReadExReq_avg_mshr_miss_latency::total 73691.094620                       # average ReadExReq mshr miss latency
system.l2.ReadCleanReq_hits::.cpu.inst           4618                       # number of ReadCleanReq hits
system.l2.ReadCleanReq_hits::total               4618                       # number of ReadCleanReq hits
system.l2.ReadCleanReq_misses::.cpu.inst          779                       # number of ReadCleanReq misses
system.l2.ReadCleanReq_misses::total              779                       # number of ReadCleanReq misses
system.l2.ReadCleanReq_miss_latency::.cpu.inst     64539000                       # number of ReadCleanReq miss cycles
system.l2.ReadCleanReq_miss_latency::total     64539000                       # number of ReadCleanReq miss cycles
system.l2.ReadCleanReq_accesses::.cpu.inst         5397                       # number of ReadCleanReq accesses(hits+misses)
system.l2.ReadCleanReq_accesses::total           5397                       # number of ReadCleanReq accesses(hits+misses)
system.l2.ReadCleanReq_miss_rate::.cpu.inst     0.144339                       # miss rate for ReadCleanReq accesses
system.l2.ReadCleanReq_miss_rate::total      0.144339                       # miss rate for ReadCleanReq accesses
system.l2.ReadCleanReq_avg_miss_latency::.cpu.inst 82848.523748                       # average ReadCleanReq miss latency
system.l2.ReadCleanReq_avg_miss_latency::total 82848.523748                       # average ReadCleanReq miss latency
system.l2.ReadCleanReq_mshr_hits::.cpu.inst            1                       # number of ReadCleanReq MSHR hits
system.l2.ReadCleanReq_mshr_hits::total             1                       # number of ReadCleanReq MSHR hits
system.l2.ReadCleanReq_mshr_misses::.cpu.inst          778                       # number of ReadCleanReq MSHR misses
system.l2.ReadCleanReq_mshr_misses::total          778                       # number of ReadCleanReq MSHR misses
system.l2.ReadCleanReq_mshr_miss_latency::.cpu.inst     56723000                       # number of ReadCleanReq MSHR miss cycles
system.l2.ReadCleanReq_mshr_miss_latency::total     56723000                       # number of ReadCleanReq MSHR miss cycles
system.l2.ReadCleanReq_mshr_miss_rate::.cpu.inst     0.144154                       # mshr miss rate for ReadCleanReq accesses
system.l2.ReadCleanReq_mshr_miss_rate::total     0.144154                       # mshr miss rate for ReadCleanReq accesses
system.l2.ReadCleanReq_avg_mshr_miss_latency::.cpu.inst 72908.740360                       # average ReadCleanReq mshr miss latency
system.l2.ReadCleanReq_avg_mshr_miss_latency::total 72908.740360                       # average ReadCleanReq mshr miss latency
system.l2.ReadSharedReq_hits::.cpu.data          9210                       # number of ReadSharedReq hits
system.l2.ReadSharedReq_hits::total              9210                       # number of ReadSharedReq hits
system.l2.ReadSharedReq_misses::.cpu.data          318                       # number of ReadSharedReq misses
system.l2.ReadSharedReq_misses::total             318                       # number of ReadSharedReq misses
system.l2.ReadSharedReq_miss_latency::.cpu.data     27238000                       # number of ReadSharedReq miss cycles
system.l2.ReadSharedReq_miss_latency::total     27238000                       # number of ReadSharedReq miss cycles
system.l2.ReadSharedReq_accesses::.cpu.data         9528                       # number of ReadSharedReq accesses(hits+misses)
system.l2.ReadSharedReq_accesses::total          9528                       # number of ReadSharedReq accesses(hits+misses)
system.l2.ReadSharedReq_miss_rate::.cpu.data     0.033375                       # miss rate for ReadSharedReq accesses
system.l2.ReadSharedReq_miss_rate::total     0.033375                       # miss rate for ReadSharedReq accesses
system.l2.ReadSharedReq_avg_miss_latency::.cpu.data 85654.088050                       # average ReadSharedReq miss latency
system.l2.ReadSharedReq_avg_miss_latency::total 85654.088050                       # average ReadSharedReq miss latency
system.l2.ReadSharedReq_mshr_hits::.cpu.data            7                       # number of ReadSharedReq MSHR hits
system.l2.ReadSharedReq_mshr_hits::total            7                       # number of ReadSharedReq MSHR hits
system.l2.ReadSharedReq_mshr_misses::.cpu.data          311                       # number of ReadSharedReq MSHR misses
system.l2.ReadSharedReq_mshr_misses::total          311                       # number of ReadSharedReq MSHR misses
system.l2.ReadSharedReq_mshr_miss_latency::.cpu.data     23632000                       # number of ReadSharedReq MSHR miss cycles
system.l2.ReadSharedReq_mshr_miss_latency::total     23632000                       # number of ReadSharedReq MSHR miss cycles
system.l2.ReadSharedReq_mshr_miss_rate::.cpu.data     0.032641                       # mshr miss rate for ReadSharedReq accesses
system.l2.ReadSharedReq_mshr_miss_rate::total     0.032641                       # mshr miss rate for ReadSharedReq accesses
system.l2.ReadSharedReq_avg_mshr_miss_latency::.cpu.data 75987.138264                       # average ReadSharedReq mshr miss latency
system.l2.ReadSharedReq_avg_mshr_miss_latency::total 75987.138264                       # average ReadSharedReq mshr miss latency
system.l2.tags.pwrStateResidencyTicks::UNDEFINED  59192790000                       # Cumulative time (in ticks) in various power states
system.l2.tags.tagsinuse                  2802.802423                       # Cycle average of tags in use
system.l2.tags.total_refs                       87287                       # Total number of references to valid blocks.
system.l2.tags.sampled_refs                      3245                       # Sample count of references to valid blocks.
system.l2.tags.avg_refs                     26.898921                       # Average number of references to valid blocks.
system.l2.tags.warmup_cycle                     82000                       # Cycle when the warmup percentage was hit.
system.l2.tags.occ_blocks::.cpu.inst       774.178746                       # Average occupied blocks per requestor
system.l2.tags.occ_blocks::.cpu.data      2028.623677                       # Average occupied blocks per requestor
system.l2.tags.occ_percent::.cpu.inst        0.047252                       # Average percentage of cache occupancy
system.l2.tags.occ_percent::.cpu.data        0.123817                       # Average percentage of cache occupancy
system.l2.tags.occ_percent::total            0.171069                       # Average percentage of cache occupancy
system.l2.tags.occ_task_id_blocks::1024          3245                       # Occupied blocks per task id
system.l2.tags.age_task_id_blocks_1024::4         3245                       # Occupied blocks per task id
system.l2.tags.occ_task_id_percent::1024     0.198059                       # Percentage of cache occupancy per task id
system.l2.tags.tag_accesses                    701605                       # Number of tag accesses
system.l2.tags.data_accesses                   701605                       # Number of data accesses
system.cpu_voltage_domain.voltage                   1                       # Voltage in Volts
system.mem_ctrls.pwrStateResidencyTicks::UNDEFINED  59192790000                       # Cumulative time (in ticks) in various power states
system.mem_ctrls.bytes_read::.cpu.inst          99584                       # Number of bytes read from this memory
system.mem_ctrls.bytes_read::.cpu.data         315776                       # Number of bytes read from this memory
system.mem_ctrls.bytes_read::total             415360                       # Number of bytes read from this memory
system.mem_ctrls.bytes_inst_read::.cpu.inst        99584                       # Number of instructions bytes read from this memory
system.mem_ctrls.bytes_inst_read::total         99584                       # Number of instructions bytes read from this memory
system.mem_ctrls.num_reads::.cpu.inst             778                       # Number of read requests responded to by this memory
system.mem_ctrls.num_reads::.cpu.data            2467                       # Number of read requests responded to by this memory
system.mem_ctrls.num_reads::total                3245                       # Number of read requests responded to by this memory
system.mem_ctrls.bw_read::.cpu.inst           1682367                       # Total read bandwidth from this memory (bytes/s)
system.mem_ctrls.bw_read::.cpu.data           5334704                       # Total read bandwidth from this memory (bytes/s)
system.mem_ctrls.bw_read::total               7017071                       # Total read bandwidth from this memory (bytes/s)
system.mem_ctrls.bw_inst_read::.cpu.inst      1682367                       # Instruction read bandwidth from this memory (bytes/s)
system.mem_ctrls.bw_inst_read::total          1682367                       # Instruction read bandwidth from this memory (bytes/s)
system.mem_ctrls.bw_total::.cpu.inst          1682367                       # Total bandwidth to/from this memory (bytes/s)
system.mem_ctrls.bw_total::.cpu.data          5334704                       # Total bandwidth to/from this memory (bytes/s)
system.mem_ctrls.bw_total::total              7017071                       # Total bandwidth to/from this memory (bytes/s)
system.mem_ctrls.avgPriority_.cpu.inst::samples      1556.00                       # Average QoS priority value for accepted requests
system.mem_ctrls.avgPriority_.cpu.data::samples      4934.00                       # Average QoS priority value for accepted requests
system.mem_ctrls.priorityMinLatency      0.000000018750                       # per QoS priority minimum request to response latency (s)
system.mem_ctrls.priorityMaxLatency      0.000000677500                       # per QoS priority maximum request to response latency (s)
system.mem_ctrls.numReadWriteTurnArounds            0                       # Number of turnarounds from READ to WRITE
system.mem_ctrls.numWriteReadTurnArounds            0                       # Number of turnarounds from WRITE to READ
system.mem_ctrls.numStayReadState               24934                       # Number of times bus staying in READ state
system.mem_ctrls.numStayWriteState                  0                       # Number of times bus staying in WRITE state
system.mem_ctrls.readReqs                        3245                       # Number of read requests accepted
system.mem_ctrls.writeReqs                          0                       # Number of write requests accepted
system.mem_ctrls.readBursts                      6490                       # Number of DRAM read bursts, including those serviced by the write queue
system.mem_ctrls.writeBursts                        0                       # Number of DRAM write bursts, including those merged in the write queue
system.mem_ctrls.servicedByWrQ                      0                       # Number of DRAM read bursts serviced by the write queue
system.mem_ctrls.mergedWrBursts                     0                       # Number of DRAM write bursts merged with an existing one
system.mem_ctrls.neitherReadNorWriteReqs            0                       # Number of requests that are neither read nor write
system.mem_ctrls.perBankRdBursts::0               412                       # Per bank write bursts
system.mem_ctrls.perBankRdBursts::1               450                       # Per bank write bursts
system.mem_ctrls.perBankRdBursts::2               338                       # Per bank write bursts
system.mem_ctrls.perBankRdBursts::3               510                       # Per bank write bursts
system.mem_ctrls.perBankRdBursts::4               576                       # Per bank write bursts
system.mem_ctrls.perBankRdBursts::5               384                       # Per bank write bursts
system.mem_ctrls.perBankRdBursts::6               398                       # Per bank write bursts
system.mem_ctrls.perBankRdBursts::7               422                       # Per bank write bursts
system.mem_ctrls.perBankRdBursts::8               386                       # Per bank write bursts
system.mem_ctrls.perBankRdBursts::9               398                       # Per bank write bursts
system.mem_ctrls.perBankRdBursts::10              456                       # Per bank write bursts
system.mem_ctrls.perBankRdBursts::11              306                       # Per bank write bursts
system.mem_ctrls.perBankRdBursts::12              318                       # Per bank write bursts
system.mem_ctrls.perBankRdBursts::13              348                       # Per bank write bursts
system.mem_ctrls.perBankRdBursts::14              434                       # Per bank write bursts
system.mem_ctrls.perBankRdBursts::15              354                       # Per bank write bursts
system.mem_ctrls.perBankWrBursts::0                 0                       # Per bank write bursts
system.mem_ctrls.perBankWrBursts::1                 0                       # Per bank write bursts
system.mem_ctrls.perBankWrBursts::2                 0                       # Per bank write bursts
system.mem_ctrls.perBankWrBursts::3                 0                       # Per bank write bursts
system.mem_ctrls.perBankWrBursts::4                 0                       # Per bank write bursts
system.mem_ctrls.perBankWrBursts::5                 0                       # Per bank write bursts
system.mem_ctrls.perBankWrBursts::6                 0                       # Per bank write bursts
system.mem_ctrls.perBankWrBursts::7                 0                       # Per bank write bursts
system.mem_ctrls.perBankWrBursts::8                 0                       # Per bank write bursts
system.mem_ctrls.perBankWrBursts::9                 0                       # Per bank write bursts
system.mem_ctrls.perBankWrBursts::10                0                       # Per bank write bursts
system.mem_ctrls.perBankWrBursts::11                0                       # Per bank write bursts
system.mem_ctrls.perBankWrBursts::12                0                       # Per bank write bursts
system.mem_ctrls.perBankWrBursts::13                0                       # Per bank write bursts
system.mem_ctrls.perBankWrBursts::14                0                       # Per bank write bursts
system.mem_ctrls.perBankWrBursts::15                0                       # Per bank write bursts
system.mem_ctrls.avgRdQLen                       2.00                       # Average read queue length when enqueuing
system.mem_ctrls.avgWrQLen                       0.00                       # Average write queue length when enqueuing
system.mem_ctrls.totQLat                     73535750                       # Total ticks spent queuing
system.mem_ctrls.totBusLat                   32450000                       # Total ticks spent in databus transfers
system.mem_ctrls.totMemAccLat               195223250                       # Total ticks spent from burst creation until serviced by the DRAM
system.mem_ctrls.avgQLat                     11330.62                       # Average queueing delay per DRAM burst
system.mem_ctrls.avgBusLat                    5000.00                       # Average bus latency per DRAM burst
system.mem_ctrls.avgMemAccLat                30080.62                       # Average memory access latency per DRAM burst
system.mem_ctrls.numRdRetry                         0                       # Number of times read queue was full causing retry
system.mem_ctrls.numWrRetry                         0                       # Number of times write queue was full causing retry
system.mem_ctrls.readRowHits                     5391                       # Number of row buffer hits during reads
system.mem_ctrls.writeRowHits                       0                       # Number of row buffer hits during writes
system.mem_ctrls.readRowHitRate                 83.07                       # Row buffer hit rate for reads
system.mem_ctrls.writeRowHitRate                  nan                       # Row buffer hit rate for writes
system.mem_ctrls.readPktSize::0                     0                       # Read request sizes (log2)
system.mem_ctrls.readPktSize::1                     0                       # Read request sizes (log2)
system.mem_ctrls.readPktSize::2                     0                       # Read request sizes (log2)
system.mem_ctrls.readPktSize::3                     0                       # Read request sizes (log2)
system.mem_ctrls.readPktSize::4                     0                       # Read request sizes (log2)
system.mem_ctrls.readPktSize::5                     0                       # Read request sizes (log2)
system.mem_ctrls.readPktSize::6                  6490                       # Read request sizes (log2)
system.mem_ctrls.writePktSize::0                    0                       # Write request sizes (log2)
system.mem_ctrls.writePktSize::1                    0                       # Write request sizes (log2)
system.mem_ctrls.writePktSize::2                    0                       # Write request sizes (log2)
system.mem_ctrls.writePktSize::3                    0                       # Write request sizes (log2)
system.mem_ctrls.writePktSize::4                    0                       # Write request sizes (log2)
system.mem_ctrls.writePktSize::5                    0                       # Write request sizes (log2)
system.mem_ctrls.writePktSize::6                    0                       # Write request sizes (log2)
system.mem_ctrls.rdQLenPdf::0                    3086                       # What read queue length does an incoming req see
system.mem_ctrls.rdQLenPdf::1                    3121                       # What read queue length does an incoming req see
system.mem_ctrls.rdQLenPdf::2                     154                       # What read queue length does an incoming req see
system.mem_ctrls.rdQLenPdf::3                     119                       # What read queue length does an incoming req see
system.mem_ctrls.rdQLenPdf::4                       5                       # What read queue length does an incoming req see
system.mem_ctrls.rdQLenPdf::5                       5                       # What read queue length does an incoming req see
system.mem_ctrls.rdQLenPdf::6                       0                       # What read queue length does an incoming req see
system.mem_ctrls.rdQLenPdf::7                       0                       # What read queue length does an incoming req see
system.mem_ctrls.rdQLenPdf::8                       0                       # What read queue length does an incoming req see
system.mem_ctrls.rdQLenPdf::9                       0                       # What read queue length does an incoming req see
system.mem_ctrls.rdQLenPdf::10                      0                       # What read queue length does an incoming req see
system.mem_ctrls.rdQLenPdf::11                      0                       # What read queue length does an incoming req see
system.mem_ctrls.rdQLenPdf::12                      0                       # What read queue length does an incoming req see
system.mem_ctrls.rdQLenPdf::13                      0                       # What read queue length does an incoming req see
system.mem_ctrls.rdQLenPdf::14                      0                       # What read queue length does an incoming req see
system.mem_ctrls.rdQLenPdf::15                      0                       # What read queue length does an incoming req see
system.mem_ctrls.rdQLenPdf::16                      0                       # What read queue length does an incoming req see
system.mem_ctrls.rdQLenPdf::17                      0                       # What read queue length does an incoming req see
system.mem_ctrls.rdQLenPdf::18                      0                       # What read queue length does an incoming req see
system.mem_ctrls.rdQLenPdf::19                      0                       # What read queue length does an incoming req see
system.mem_ctrls.rdQLenPdf::20                      0                       # What read queue length does an incoming req see
system.mem_ctrls.rdQLenPdf::21                      0                       # What read queue length does an incoming req see
system.mem_ctrls.rdQLenPdf::22                      0                       # What read queue length does an incoming req see
system.mem_ctrls.rdQLenPdf::23                      0                       # What read queue length does an incoming req see
system.mem_ctrls.rdQLenPdf::24                      0                       # What read queue length does an incoming req see
system.mem_ctrls.rdQLenPdf::25                      0                       # What read queue length does an incoming req see
system.mem_ctrls.rdQLenPdf::26                      0                       # What read queue length does an incoming req see
system.mem_ctrls.rdQLenPdf::27                      0                       # What read queue length does an incoming req see
system.mem_ctrls.rdQLenPdf::28                      0                       # What read queue length does an incoming req see
system.mem_ctrls.rdQLenPdf::29                      0                       # What read queue length does an incoming req see
system.mem_ctrls.rdQLenPdf::30                      0                       # What read queue length does an incoming req see
system.mem_ctrls.rdQLenPdf::31                      0                       # What read queue length does an incoming req see
system.mem_ctrls.wrQLenPdf::0                       0                       # What write queue length does an incoming req see
system.mem_ctrls.wrQLenPdf::1                       0                       # What write queue length does an incoming req see
system.mem_ctrls.wrQLenPdf::2                       0                       # What write queue length does an incoming req see
system.mem_ctrls.wrQLenPdf::3                       0                       # What write queue length does an incoming req see
system.mem_ctrls.wrQLenPdf::4                       0                       # What write queue length does an incoming req see
system.mem_ctrls.wrQLenPdf::5                       0                       # What write queue length does an incoming req see
system.mem_ctrls.wrQLenPdf::6                       0                       # What write queue length does an incoming req see
system.mem_ctrls.wrQLenPdf::7                       0                       # What write queue length does an incoming req see
system.mem_ctrls.wrQLenPdf::8                       0                       # What write queue length does an incoming req see
system.mem_ctrls.wrQLenPdf::9                       0                       # What write queue length does an incoming req see
system.mem_ctrls.wrQLenPdf::10                      0                       # What write queue length does an incoming req see
system.mem_ctrls.wrQLenPdf::11                      0                       # What write queue length does an incoming req see
system.mem_ctrls.wrQLenPdf::12                      0                       # What write queue length does an incoming req see
system.mem_ctrls.wrQLenPdf::13                      0                       # What write queue length does an incoming req see
system.mem_ctrls.wrQLenPdf::14                      0                       # What write queue length does an incoming req see
system.mem_ctrls.wrQLenPdf::15                      0                       # What write queue length does an incoming req see
system.mem_ctrls.wrQLenPdf::16                      0                       # What write queue length does an incoming req see
system.mem_ctrls.wrQLenPdf::17                      0                       # What write queue length does an incoming req see
system.mem_ctrls.wrQLenPdf::18                      0                       # What write queue length does an incoming req see
system.mem_ctrls.wrQLenPdf::19                      0                       # What write queue length does an incoming req see
system.mem_ctrls.wrQLenPdf::20                      0                       # What write queue length does an incoming req see
system.mem_ctrls.wrQLenPdf::21                      0                       # What write queue length does an incoming req see
system.mem_ctrls.wrQLenPdf::22                      0                       # What write queue length does an incoming req see
system.mem_ctrls.wrQLenPdf::23                      0                       # What write queue length does an incoming req see
system.mem_ctrls.wrQLenPdf::24                      0                       # What write queue length does an incoming req see
system.mem_ctrls.wrQLenPdf::25                      0                       # What write queue length does an incoming req see
system.mem_ctrls.wrQLenPdf::26                      0                       # What write queue length does an incoming req see
system.mem_ctrls.wrQLenPdf::27                      0                       # What write queue length does an incoming req see
system.mem_ctrls.wrQLenPdf::28                      0                       # What write queue length does an incoming req see
system.mem_ctrls.wrQLenPdf::29                      0                       # What write queue length does an incoming req see
system.mem_ctrls.wrQLenPdf::30                      0                       # What write queue length does an incoming req see
system.mem_ctrls.wrQLenPdf::31                      0                       # What write queue length does an incoming req see
system.mem_ctrls.wrQLenPdf::32                      0                       # What write queue length does an incoming req see
system.mem_ctrls.wrQLenPdf::33                      0                       # What write queue length does an incoming req see
system.mem_ctrls.wrQLenPdf::34                      0                       # What write queue length does an incoming req see
system.mem_ctrls.wrQLenPdf::35                      0                       # What write queue length does an incoming req see
system.mem_ctrls.wrQLenPdf::36                      0                       # What write queue length does an incoming req see
system.mem_ctrls.wrQLenPdf::37                      0                       # What write queue length does an incoming req see
system.mem_ctrls.wrQLenPdf::38                      0                       # What write queue length does an incoming req see
system.mem_ctrls.wrQLenPdf::39                      0                       # What write queue length does an incoming req see
system.mem_ctrls.wrQLenPdf::40                      0                       # What write queue length does an incoming req see
system.mem_ctrls.wrQLenPdf::41                      0                       # What write queue length does an incoming req see
system.mem_ctrls.wrQLenPdf::42                      0                       # What write queue length does an incoming req see
system.mem_ctrls.wrQLenPdf::43                      0                       # What write queue length does an incoming req see
system.mem_ctrls.wrQLenPdf::44                      0                       # What write queue length does an incoming req see
system.mem_ctrls.wrQLenPdf::45                      0                       # What write queue length does an incoming req see
system.mem_ctrls.wrQLenPdf::46                      0                       # What write queue length does an incoming req see
system.mem_ctrls.wrQLenPdf::47                      0                       # What write queue length does an incoming req see
system.mem_ctrls.wrQLenPdf::48                      0                       # What write queue length does an incoming req see
system.mem_ctrls.wrQLenPdf::49                      0                       # What write queue length does an incoming req see
system.mem_ctrls.wrQLenPdf::50                      0                       # What write queue length does an incoming req see
system.mem_ctrls.wrQLenPdf::51                      0                       # What write queue length does an incoming req see
system.mem_ctrls.wrQLenPdf::52                      0                       # What write queue length does an incoming req see
system.mem_ctrls.wrQLenPdf::53                      0                       # What write queue length does an incoming req see
system.mem_ctrls.wrQLenPdf::54                      0                       # What write queue length does an incoming req see
system.mem_ctrls.wrQLenPdf::55                      0                       # What write queue length does an incoming req see
system.mem_ctrls.wrQLenPdf::56                      0                       # What write queue length does an incoming req see
system.mem_ctrls.wrQLenPdf::57                      0                       # What write queue length does an incoming req see
system.mem_ctrls.wrQLenPdf::58                      0                       # What write queue length does an incoming req see
system.mem_ctrls.wrQLenPdf::59                      0                       # What write queue length does an incoming req see
system.mem_ctrls.wrQLenPdf::60                      0                       # What write queue length does an incoming req see
system.mem_ctrls.wrQLenPdf::61                      0                       # What write queue length does an incoming req see
system.mem_ctrls.wrQLenPdf::62                      0                       # What write queue length does an incoming req see
system.mem_ctrls.wrQLenPdf::63                      0                       # What write queue length does an incoming req see
system.mem_ctrls.bytesPerActivate::samples         1099                       # Bytes accessed per row activation
system.mem_ctrls.bytesPerActivate::mean    377.943585                       # Bytes accessed per row activation
system.mem_ctrls.bytesPerActivate::gmean   272.487312                       # Bytes accessed per row activation
system.mem_ctrls.bytesPerActivate::stdev   330.292238                       # Bytes accessed per row activation
system.mem_ctrls.bytesPerActivate::0-127            1      0.09%      0.09% # Bytes accessed per row activation
system.mem_ctrls.bytesPerActivate::128-255          437     39.76%     39.85% # Bytes accessed per row activation
system.mem_ctrls.bytesPerActivate::256-383          316     28.75%     68.61% # Bytes accessed per row activation
system.mem_ctrls.bytesPerActivate::384-511           60      5.46%     74.07% # Bytes accessed per row activation
system.mem_ctrls.bytesPerActivate::512-639           41      3.73%     77.80% # Bytes accessed per row activation
system.mem_ctrls.bytesPerActivate::640-767           27      2.46%     80.25% # Bytes accessed per row activation
system.mem_ctrls.bytesPerActivate::768-895           15      1.36%     81.62% # Bytes accessed per row activation
system.mem_ctrls.bytesPerActivate::896-1023           10      0.91%     82.53% # Bytes accessed per row activation
system.mem_ctrls.bytesPerActivate::1024-1151          192     17.47%    100.00% # Bytes accessed per row activation
system.mem_ctrls.bytesPerActivate::total         1099                       # Bytes accessed per row activation
system.mem_ctrls.bytesReadDRAM                 415360                       # Total number of bytes read from DRAM
system.mem_ctrls.bytesReadWrQ                       0                       # Total number of bytes read from write queue
system.mem_ctrls.bytesWritten                       0                       # Total number of bytes written to DRAM
system.mem_ctrls.bytesReadSys                  415360                       # Total read bytes from the system interface side
system.mem_ctrls.bytesWrittenSys                    0                       # Total written bytes from the system interface side
system.mem_ctrls.avgRdBW                         7.02                       # Average DRAM read bandwidth in MiByte/s
system.mem_ctrls.avgWrBW                         0.00                       # Average achieved write bandwidth in MiByte/s
system.mem_ctrls.avgRdBWSys                      7.02                       # Average system read bandwidth in MiByte/s
system.mem_ctrls.avgWrBWSys                      0.00                       # Average system write bandwidth in MiByte/s
system.mem_ctrls.peakBW                      12800.00                       # Theoretical peak bandwidth in MiByte/s
system.mem_ctrls.busUtil                         0.05                       # Data bus utilization in percentage
system.mem_ctrls.busUtilRead                     0.05                       # Data bus utilization in percentage for reads
system.mem_ctrls.busUtilWrite                    0.00                       # Data bus utilization in percentage for writes
system.mem_ctrls.totGap                   44787471000                       # Total gap between requests
system.mem_ctrls.avgGap                   13801994.14                       # Average gap between requests
system.mem_ctrls.masterReadBytes::.cpu.inst        99584                       # Per-master bytes read from memory
system.mem_ctrls.masterReadBytes::.cpu.data       315776                       # Per-master bytes read from memory
system.mem_ctrls.masterReadRate::.cpu.inst 1682367.058555611176                       # Per-master bytes read from memory rate (Bytes/sec)
system.mem_ctrls.masterReadRate::.cpu.data 5334703.770509887487                       # Per-master bytes read from memory rate (Bytes/sec)
system.mem_ctrls.masterReadAccesses::.cpu.inst         1556                       # Per-master read serviced memory accesses
system.mem_ctrls.masterReadAccesses::.cpu.data         4934                       # Per-master read serviced memory accesses
system.mem_ctrls.masterReadTotalLat::.cpu.inst     45282750                       # Per-master read total memory access latency
system.mem_ctrls.masterReadTotalLat::.cpu.data    149940500                       # Per-master read total memory access latency
system.mem_ctrls.masterReadAvgLat::.cpu.inst     29102.02                       # Per-master read average memory access latency
system.mem_ctrls.masterReadAvgLat::.cpu.data     30389.24                       # Per-master read average memory access latency
system.mem_ctrls.pageHitRate                    83.07                       # Row buffer hit rate, read and write combined
system.mem_ctrls.rank1.actEnergy              3955560                       # Energy for activate commands per rank (pJ)
[...]
system.cpu.icache.ReadReq_mshr_misses::total         5397                       # number of ReadReq MSHR misses
system.cpu.icache.ReadReq_mshr_miss_latency::.cpu.inst    122616000                       # number of ReadReq MSHR miss cycles
system.cpu.icache.ReadReq_mshr_miss_latency::total    122616000                       # number of ReadReq MSHR miss cycles
system.cpu.icache.ReadReq_mshr_miss_rate::.cpu.inst     0.000355                       # mshr miss rate for ReadReq accesses
system.cpu.icache.ReadReq_mshr_miss_rate::total     0.000355                       # mshr miss rate for ReadReq accesses
system.cpu.icache.ReadReq_avg_mshr_miss_latency::.cpu.inst 22719.288494                       # average ReadReq mshr miss latency
system.cpu.icache.ReadReq_avg_mshr_miss_latency::total 22719.288494                       # average ReadReq mshr miss latency
system.cpu.icache.tags.pwrStateResidencyTicks::UNDEFINED  59192790000                       # Cumulative time (in ticks) in various power states
system.cpu.icache.tags.tagsinuse           255.873004                       # Cycle average of tags in use
system.cpu.icache.tags.total_refs            15207285                       # Total number of references to valid blocks.
system.cpu.icache.tags.sampled_refs              5397                       # Sample count of references to valid blocks.
system.cpu.icache.tags.avg_refs           2817.729294                       # Average number of references to valid blocks.
system.cpu.icache.tags.warmup_cycle             92500                       # Cycle when the warmup percentage was hit.
system.cpu.icache.tags.occ_blocks::.cpu.inst   255.873004                       # Average occupied blocks per requestor
system.cpu.icache.tags.occ_percent::.cpu.inst     0.999504                       # Average percentage of cache occupancy
system.cpu.icache.tags.occ_percent::total     0.999504                       # Average percentage of cache occupancy
system.cpu.icache.tags.occ_task_id_blocks::1024          256                       # Occupied blocks per task id
system.cpu.icache.tags.age_task_id_blocks_1024::1           16                       # Occupied blocks per task id
system.cpu.icache.tags.age_task_id_blocks_1024::3           11                       # Occupied blocks per task id
system.cpu.icache.tags.age_task_id_blocks_1024::4          229                       # Occupied blocks per task id
system.cpu.icache.tags.occ_task_id_percent::1024            1                       # Percentage of cache occupancy per task id
system.cpu.icache.tags.tag_accesses          30419967                       # Number of tag accesses
system.cpu.icache.tags.data_accesses         30419967                       # Number of data accesses
system.cpu.dtb.walker.pwrStateResidencyTicks::UNDEFINED  59192790000                       # Cumulative time (in ticks) in various power states
system.cpu.dtb.stage2_mmu.stage2_tlb.walker.pwrStateResidencyTicks::UNDEFINED  59192790000                       # Cumulative time (in ticks) in various power states
system.cpu.dcache.pwrStateResidencyTicks::UNDEFINED  59192790000                       # Cumulative time (in ticks) in various power states
system.cpu.dcache.demand_hits::.cpu.data     43873279                       # number of demand (read+write) hits
system.cpu.dcache.demand_hits::total         43873279                       # number of demand (read+write) hits
system.cpu.dcache.overall_hits::.cpu.data     43882036                       # number of overall hits
system.cpu.dcache.overall_hits::total        43882036                       # number of overall hits
system.cpu.dcache.demand_misses::.cpu.data        42971                       # number of demand (read+write) misses
system.cpu.dcache.demand_misses::total          42971                       # number of demand (read+write) misses
system.cpu.dcache.overall_misses::.cpu.data        43039                       # number of overall misses
system.cpu.dcache.overall_misses::total         43039                       # number of overall misses
system.cpu.dcache.demand_miss_latency::.cpu.data    856610000                       # number of demand (read+write) miss cycles
system.cpu.dcache.demand_miss_latency::total    856610000                       # number of demand (read+write) miss cycles
system.cpu.dcache.overall_miss_latency::.cpu.data    856610000                       # number of overall miss cycles
system.cpu.dcache.overall_miss_latency::total    856610000                       # number of overall miss cycles
system.cpu.dcache.demand_accesses::.cpu.data     43916250                       # number of demand (read+write) accesses
system.cpu.dcache.demand_accesses::total     43916250                       # number of demand (read+write) accesses
system.cpu.dcache.overall_accesses::.cpu.data     43925075                       # number of overall (read+write) accesses
system.cpu.dcache.overall_accesses::total     43925075                       # number of overall (read+write) accesses
system.cpu.dcache.demand_miss_rate::.cpu.data     0.000978                       # miss rate for demand accesses
system.cpu.dcache.demand_miss_rate::total     0.000978                       # miss rate for demand accesses
system.cpu.dcache.overall_miss_rate::.cpu.data     0.000980                       # miss rate for overall accesses
system.cpu.dcache.overall_miss_rate::total     0.000980                       # miss rate for overall accesses
system.cpu.dcache.demand_avg_miss_latency::.cpu.data 19934.607061                       # average overall miss latency
system.cpu.dcache.demand_avg_miss_latency::total 19934.607061                       # average overall miss latency
system.cpu.dcache.overall_avg_miss_latency::.cpu.data 19903.111132                       # average overall miss latency
system.cpu.dcache.overall_avg_miss_latency::total 19903.111132                       # average overall miss latency
system.cpu.dcache.blocked_cycles::no_mshrs            0                       # number of cycles access was blocked
system.cpu.dcache.blocked_cycles::no_targets            0                       # number of cycles access was blocked
system.cpu.dcache.blocked::no_mshrs                 0                       # number of cycles access was blocked
system.cpu.dcache.blocked::no_targets               0                       # number of cycles access was blocked
system.cpu.dcache.avg_blocked_cycles::no_mshrs          nan                       # average number of cycles each access was blocked
system.cpu.dcache.avg_blocked_cycles::no_targets          nan                       # average number of cycles each access was blocked
system.cpu.dcache.writebacks::.writebacks        36948                       # number of writebacks
system.cpu.dcache.writebacks::total             36948                       # number of writebacks
system.cpu.dcache.demand_mshr_hits::.cpu.data         3814                       # number of demand (read+write) MSHR hits
system.cpu.dcache.demand_mshr_hits::total         3814                       # number of demand (read+write) MSHR hits
system.cpu.dcache.overall_mshr_hits::.cpu.data         3814                       # number of overall MSHR hits
system.cpu.dcache.overall_mshr_hits::total         3814                       # number of overall MSHR hits
system.cpu.dcache.demand_mshr_misses::.cpu.data        39157                       # number of demand (read+write) MSHR misses
system.cpu.dcache.demand_mshr_misses::total        39157                       # number of demand (read+write) MSHR misses
system.cpu.dcache.overall_mshr_misses::.cpu.data        39201                       # number of overall MSHR misses
system.cpu.dcache.overall_mshr_misses::total        39201                       # number of overall MSHR misses
system.cpu.dcache.demand_mshr_miss_latency::.cpu.data    653809500                       # number of demand (read+write) MSHR miss cycles
system.cpu.dcache.demand_mshr_miss_latency::total    653809500                       # number of demand (read+write) MSHR miss cycles
system.cpu.dcache.overall_mshr_miss_latency::.cpu.data    657599000                       # number of overall MSHR miss cycles
system.cpu.dcache.overall_mshr_miss_latency::total    657599000                       # number of overall MSHR miss cycles
system.cpu.dcache.demand_mshr_miss_rate::.cpu.data     0.000892                       # mshr miss rate for demand accesses
system.cpu.dcache.demand_mshr_miss_rate::total     0.000892                       # mshr miss rate for demand accesses
system.cpu.dcache.overall_mshr_miss_rate::.cpu.data     0.000892                       # mshr miss rate for overall accesses
system.cpu.dcache.overall_mshr_miss_rate::total     0.000892                       # mshr miss rate for overall accesses
system.cpu.dcache.demand_avg_mshr_miss_latency::.cpu.data 16697.129504                       # average overall mshr miss latency
system.cpu.dcache.demand_avg_mshr_miss_latency::total 16697.129504                       # average overall mshr miss latency
system.cpu.dcache.overall_avg_mshr_miss_latency::.cpu.data 16775.056759                       # average overall mshr miss latency
system.cpu.dcache.overall_avg_mshr_miss_latency::total 16775.056759                       # average overall mshr miss latency
system.cpu.dcache.replacements                  38689                       # number of replacements
system.cpu.dcache.ReadReq_hits::.cpu.data     37562109                       # number of ReadReq hits
system.cpu.dcache.ReadReq_hits::total        37562109                       # number of ReadReq hits
system.cpu.dcache.ReadReq_misses::.cpu.data         9648                       # number of ReadReq misses
system.cpu.dcache.ReadReq_misses::total          9648                       # number of ReadReq misses
system.cpu.dcache.ReadReq_miss_latency::.cpu.data    153021000                       # number of ReadReq miss cycles
system.cpu.dcache.ReadReq_miss_latency::total    153021000                       # number of ReadReq miss cycles
system.cpu.dcache.ReadReq_accesses::.cpu.data     37571757                       # number of ReadReq accesses(hits+misses)
system.cpu.dcache.ReadReq_accesses::total     37571757                       # number of ReadReq accesses(hits+misses)
system.cpu.dcache.ReadReq_miss_rate::.cpu.data     0.000257                       # miss rate for ReadReq accesses
system.cpu.dcache.ReadReq_miss_rate::total     0.000257                       # miss rate for ReadReq accesses
system.cpu.dcache.ReadReq_avg_miss_latency::.cpu.data 15860.385572                       # average ReadReq miss latency
system.cpu.dcache.ReadReq_avg_miss_latency::total 15860.385572                       # average ReadReq miss latency
system.cpu.dcache.ReadReq_mshr_hits::.cpu.data          164                       # number of ReadReq MSHR hits
system.cpu.dcache.ReadReq_mshr_hits::total          164                       # number of ReadReq MSHR hits
system.cpu.dcache.ReadReq_mshr_misses::.cpu.data         9484                       # number of ReadReq MSHR misses
system.cpu.dcache.ReadReq_mshr_misses::total         9484                       # number of ReadReq MSHR misses
system.cpu.dcache.ReadReq_mshr_miss_latency::.cpu.data    139423500                       # number of ReadReq MSHR miss cycles
system.cpu.dcache.ReadReq_mshr_miss_latency::total    139423500                       # number of ReadReq MSHR miss cycles
system.cpu.dcache.ReadReq_mshr_miss_rate::.cpu.data     0.000252                       # mshr miss rate for ReadReq accesses
system.cpu.dcache.ReadReq_mshr_miss_rate::total     0.000252                       # mshr miss rate for ReadReq accesses
system.cpu.dcache.ReadReq_avg_mshr_miss_latency::.cpu.data 14700.917334                       # average ReadReq mshr miss latency
system.cpu.dcache.ReadReq_avg_mshr_miss_latency::total 14700.917334                       # average ReadReq mshr miss latency
system.cpu.dcache.WriteReq_hits::.cpu.data      6311170                       # number of WriteReq hits
system.cpu.dcache.WriteReq_hits::total        6311170                       # number of WriteReq hits
system.cpu.dcache.WriteReq_misses::.cpu.data        33323                       # number of WriteReq misses
system.cpu.dcache.WriteReq_misses::total        33323                       # number of WriteReq misses
system.cpu.dcache.WriteReq_miss_latency::.cpu.data    703589000                       # number of WriteReq miss cycles
system.cpu.dcache.WriteReq_miss_latency::total    703589000                       # number of WriteReq miss cycles
system.cpu.dcache.WriteReq_accesses::.cpu.data      6344493                       # number of WriteReq accesses(hits+misses)
system.cpu.dcache.WriteReq_accesses::total      6344493                       # number of WriteReq accesses(hits+misses)
system.cpu.dcache.WriteReq_miss_rate::.cpu.data     0.005252                       # miss rate for WriteReq accesses
system.cpu.dcache.WriteReq_miss_rate::total     0.005252                       # miss rate for WriteReq accesses
system.cpu.dcache.WriteReq_avg_miss_latency::.cpu.data 21114.215407                       # average WriteReq miss latency
system.cpu.dcache.WriteReq_avg_miss_latency::total 21114.215407                       # average WriteReq miss latency
system.cpu.dcache.WriteReq_mshr_hits::.cpu.data         3650                       # number of WriteReq MSHR hits
system.cpu.dcache.WriteReq_mshr_hits::total         3650                       # number of WriteReq MSHR hits
system.cpu.dcache.WriteReq_mshr_misses::.cpu.data        29673                       # number of WriteReq MSHR misses
system.cpu.dcache.WriteReq_mshr_misses::total        29673                       # number of WriteReq MSHR misses
system.cpu.dcache.WriteReq_mshr_miss_latency::.cpu.data    514386000                       # number of WriteReq MSHR miss cycles
system.cpu.dcache.WriteReq_mshr_miss_latency::total    514386000                       # number of WriteReq MSHR miss cycles
system.cpu.dcache.WriteReq_mshr_miss_rate::.cpu.data     0.004677                       # mshr miss rate for WriteReq accesses
system.cpu.dcache.WriteReq_mshr_miss_rate::total     0.004677                       # mshr miss rate for WriteReq accesses
system.cpu.dcache.WriteReq_avg_mshr_miss_latency::.cpu.data 17335.153170                       # average WriteReq mshr miss latency
system.cpu.dcache.WriteReq_avg_mshr_miss_latency::total 17335.153170                       # average WriteReq mshr miss latency
system.cpu.dcache.SoftPFReq_hits::.cpu.data         8757                       # number of SoftPFReq hits
system.cpu.dcache.SoftPFReq_hits::total          8757                       # number of SoftPFReq hits
system.cpu.dcache.SoftPFReq_misses::.cpu.data           68                       # number of SoftPFReq misses
system.cpu.dcache.SoftPFReq_misses::total           68                       # number of SoftPFReq misses
system.cpu.dcache.SoftPFReq_accesses::.cpu.data         8825                       # number of SoftPFReq accesses(hits+misses)
system.cpu.dcache.SoftPFReq_accesses::total         8825                       # number of SoftPFReq accesses(hits+misses)
system.cpu.dcache.SoftPFReq_miss_rate::.cpu.data     0.007705                       # miss rate for SoftPFReq accesses
system.cpu.dcache.SoftPFReq_miss_rate::total     0.007705                       # miss rate for SoftPFReq accesses
system.cpu.dcache.SoftPFReq_mshr_misses::.cpu.data           44                       # number of SoftPFReq MSHR misses
system.cpu.dcache.SoftPFReq_mshr_misses::total           44                       # number of SoftPFReq MSHR misses
system.cpu.dcache.SoftPFReq_mshr_miss_latency::.cpu.data      3789500                       # number of SoftPFReq MSHR miss cycles
system.cpu.dcache.SoftPFReq_mshr_miss_latency::total      3789500                       # number of SoftPFReq MSHR miss cycles
system.cpu.dcache.SoftPFReq_mshr_miss_rate::.cpu.data     0.004986                       # mshr miss rate for SoftPFReq accesses
system.cpu.dcache.SoftPFReq_mshr_miss_rate::total     0.004986                       # mshr miss rate for SoftPFReq accesses
system.cpu.dcache.SoftPFReq_avg_mshr_miss_latency::.cpu.data        86125                       # average SoftPFReq mshr miss latency
system.cpu.dcache.SoftPFReq_avg_mshr_miss_latency::total        86125                       # average SoftPFReq mshr miss latency
system.cpu.dcache.LoadLockedReq_hits::.cpu.data          166                       # number of LoadLockedReq hits
system.cpu.dcache.LoadLockedReq_hits::total          166                       # number of LoadLockedReq hits
system.cpu.dcache.LoadLockedReq_accesses::.cpu.data          166                       # number of LoadLockedReq accesses(hits+misses)
system.cpu.dcache.LoadLockedReq_accesses::total          166                       # number of LoadLockedReq accesses(hits+misses)
system.cpu.dcache.StoreCondReq_hits::.cpu.data          166                       # number of StoreCondReq hits
system.cpu.dcache.StoreCondReq_hits::total          166                       # number of StoreCondReq hits
system.cpu.dcache.StoreCondReq_accesses::.cpu.data          166                       # number of StoreCondReq accesses(hits+misses)
system.cpu.dcache.StoreCondReq_accesses::total          166                       # number of StoreCondReq accesses(hits+misses)
system.cpu.dcache.tags.pwrStateResidencyTicks::UNDEFINED  59192790000                       # Cumulative time (in ticks) in various power states
system.cpu.dcache.tags.tagsinuse           507.800022                       # Cycle average of tags in use
system.cpu.dcache.tags.total_refs            43921569                       # Total number of references to valid blocks.
system.cpu.dcache.tags.sampled_refs             39201                       # Sample count of references to valid blocks.
system.cpu.dcache.tags.avg_refs           1120.419607                       # Average number of references to valid blocks.
system.cpu.dcache.tags.warmup_cycle            186500                       # Cycle when the warmup percentage was hit.
system.cpu.dcache.tags.occ_blocks::.cpu.data   507.800022                       # Average occupied blocks per requestor
system.cpu.dcache.tags.occ_percent::.cpu.data     0.991797                       # Average percentage of cache occupancy
system.cpu.dcache.tags.occ_percent::total     0.991797                       # Average percentage of cache occupancy
system.cpu.dcache.tags.occ_task_id_blocks::1024          512                       # Occupied blocks per task id
system.cpu.dcache.tags.age_task_id_blocks_1024::0            1                       # Occupied blocks per task id
system.cpu.dcache.tags.age_task_id_blocks_1024::1           48                       # Occupied blocks per task id
system.cpu.dcache.tags.age_task_id_blocks_1024::2          214                       # Occupied blocks per task id
system.cpu.dcache.tags.age_task_id_blocks_1024::3          232                       # Occupied blocks per task id
system.cpu.dcache.tags.age_task_id_blocks_1024::4           17                       # Occupied blocks per task id
system.cpu.dcache.tags.occ_task_id_percent::1024            1                       # Percentage of cache occupancy per task id
system.cpu.dcache.tags.tag_accesses          87890015                       # Number of tag accesses
system.cpu.dcache.tags.data_accesses         87890015                       # Number of data accesses
system.cpu.itb.walker.pwrStateResidencyTicks::UNDEFINED  59192790000                       # Cumulative time (in ticks) in various power states
system.cpu.itb.stage2_mmu.stage2_tlb.walker.pwrStateResidencyTicks::UNDEFINED  59192790000                       # Cumulative time (in ticks) in various power states

---------- End Simulation Statistics   ----------
